* PSpice Model Editor - Version 16.6.0
*$
.model Dbreak D Is=1e-14 Cjo=.1pF Rs=.0000001
*$
